ligand.pdb
  Avogadro

 72 76  0  0  0  0  0  0  0  0999 V2000
   11.8790   62.2720   12.5700 C   0  0  0  0  0  0  0  0  0  0  0  0
   10.8580   61.7340   11.7100 C   0  0  0  0  0  0  0  0  0  0  0  0
   10.9610   60.4250   11.2160 N   0  0  0  0  0  0  0  0  0  0  0  0
   12.0310   59.5910   11.5250 C   0  0  0  0  0  0  0  0  0  0  0  0
   13.0970   60.0700   12.3920 C   0  0  0  0  0  0  0  0  0  0  0  0
   13.0020   61.4290   12.9100 C   0  0  0  0  0  0  0  0  0  0  0  0
   14.2380   59.1550   12.7120 C   0  0  0  0  0  0  0  0  0  0  0  0
   14.1010   57.8400   12.3270 N   0  0  0  0  0  0  0  0  0  0  0  0
   15.0670   56.9270   12.5590 C   0  0  0  0  0  0  0  0  0  0  0  0
   16.2320   57.3030   13.2020 N   0  0  0  0  0  0  0  0  0  0  0  0
   16.4280   58.6030   13.6150 C   0  0  0  0  0  0  0  0  0  0  0  0
   15.4330   59.5790   13.3830 C   0  0  0  0  0  0  0  0  0  0  0  0
   14.8520   55.6270   12.1280 N   0  0  0  0  0  0  0  0  0  0  0  0
   15.8220   54.6410   12.3220 C   0  0  0  0  0  0  0  0  0  0  0  0
   15.6980   53.7720   13.4360 C   0  0  0  0  0  0  0  0  0  0  0  0
   16.6780   52.7270   13.6880 C   0  0  0  0  0  0  0  0  0  0  0  0
   17.7740   52.5970   12.7860 C   0  0  0  0  0  0  0  0  0  0  0  0
   17.9150   53.4710   11.6480 C   0  0  0  0  0  0  0  0  0  0  0  0
   16.9500   54.5020   11.3930 C   0  0  0  0  0  0  0  0  0  0  0  0
   17.1480   55.4060   10.1540 C   0  0  0  0  0  0  0  0  0  0  0  0
   16.6000   51.8100   14.7980 N   0  0  0  0  0  0  0  0  0  0  0  0
   15.6290   51.7470   15.7840 C   0  0  0  0  0  0  0  0  0  0  0  0
   15.5950   50.5580   16.6890 C   0  0  0  0  0  0  0  0  0  0  0  0
   14.4230   50.2680   17.5190 C   0  0  0  0  0  0  0  0  0  0  0  0
   14.4230   49.1240   18.3960 C   0  0  0  0  0  0  0  0  0  0  0  0
   15.6000   48.2600   18.4460 C   0  0  0  0  0  0  0  0  0  0  0  0
   16.7470   48.5680   17.6080 C   0  0  0  0  0  0  0  0  0  0  0  0
   16.7510   49.6890   16.7480 C   0  0  0  0  0  0  0  0  0  0  0  0
   14.7890   52.6120   15.9830 O   0  0  0  0  0  0  0  0  0  0  0  0
   15.6960   47.0300   19.3680 C   0  0  0  0  0  0  0  0  0  0  0  0
   16.9170   46.9070   20.2190 N   0  1  0  0  0  0  0  0  0  0  0  0
   16.8770   45.6580   21.1040 C   0  0  0  0  0  0  0  0  0  0  0  0
   18.1720   45.5330   21.9710 C   0  0  0  0  0  0  0  0  0  0  0  0
   18.3370   46.7940   22.8210 N   0  1  0  0  0  0  0  0  0  0  0  0
   18.3750   48.0410   21.9490 C   0  0  0  0  0  0  0  0  0  0  0  0
   17.0970   48.1400   21.0700 C   0  0  0  0  0  0  0  0  0  0  0  0
   19.5220   46.6550   23.6800 C   0  0  0  0  0  0  0  0  0  0  0  0
   11.8107   63.2351   12.9344 H   0  0  0  0  0  0  0  0  0  0  0  0
   10.0443   62.3153   11.4549 H   0  0  0  0  0  0  0  0  0  0  0  0
   12.0686   58.6343   11.1399 H   0  0  0  0  0  0  0  0  0  0  0  0
   13.7452   61.7932   13.5265 H   0  0  0  0  0  0  0  0  0  0  0  0
   17.3177   58.9491   13.1318 H   0  0  0  0  0  0  0  0  0  0  0  0
   16.4454   58.5205   14.6817 H   0  0  0  0  0  0  0  0  0  0  0  0
   15.5608   60.5578   13.6842 H   0  0  0  0  0  0  0  0  0  0  0  0
   14.0061   55.3963   11.6802 H   0  0  0  0  0  0  0  0  0  0  0  0
   14.8985   53.8830   14.0791 H   0  0  0  0  0  0  0  0  0  0  0  0
   18.4804   51.8629   12.9507 H   0  0  0  0  0  0  0  0  0  0  0  0
   18.7180   53.3539   11.0104 H   0  0  0  0  0  0  0  0  0  0  0  0
   16.3522   56.1194   10.1021 H   0  0  0  0  0  0  0  0  0  0  0  0
   17.1457   54.8041    9.2693 H   0  0  0  0  0  0  0  0  0  0  0  0
   18.0831   55.9200   10.2333 H   0  0  0  0  0  0  0  0  0  0  0  0
   17.3255   51.1477   14.8631 H   0  0  0  0  0  0  0  0  0  0  0  0
   13.5960   50.8838   17.4757 H   0  0  0  0  0  0  0  0  0  0  0  0
   13.5996   48.9173   18.9828 H   0  0  0  0  0  0  0  0  0  0  0  0
   17.5763   47.9547   17.6419 H   0  0  0  0  0  0  0  0  0  0  0  0
   17.5772   49.8880   16.1626 H   0  0  0  0  0  0  0  0  0  0  0  0
   15.6467   46.1590   18.7485 H   0  0  0  0  0  0  0  0  0  0  0  0
   14.8880   47.1414   20.0605 H   0  0  0  0  0  0  0  0  0  0  0  0
   17.7142   46.8147   19.5895 H   0  0  0  0  0  0  0  0  0  0  0  0
   16.7899   44.7924   20.4811 H   0  0  0  0  0  0  0  0  0  0  0  0
   16.0370   45.7377   21.7620 H   0  0  0  0  0  0  0  0  0  0  0  0
   19.0214   45.4207   21.3301 H   0  0  0  0  0  0  0  0  0  0  0  0
   18.0935   44.6785   22.6101 H   0  0  0  0  0  0  0  0  0  0  0  0
   17.5269   46.9056   23.4307 H   0  0  0  0  0  0  0  0  0  0  0  0
   19.2350   47.9986   21.3138 H   0  0  0  0  0  0  0  0  0  0  0  0
   18.4220   48.9014   22.5834 H   0  0  0  0  0  0  0  0  0  0  0  0
   16.2443   48.2510   21.7068 H   0  0  0  0  0  0  0  0  0  0  0  0
   17.1991   48.9848   20.4213 H   0  0  0  0  0  0  0  0  0  0  0  0
   20.3928   46.5356   23.0698 H   0  0  0  0  0  0  0  0  0  0  0  0
   19.4074   45.7975   24.3097 H   0  0  0  0  0  0  0  0  0  0  0  0
   19.6282   47.5307   24.2857 H   0  0  0  0  0  0  0  0  0  0  0  0
   13.2528   57.4887   12.7941 H   0  0  0  0  0  0  0  0  0  0  0  0
  1  2  2  0  0  0  0
  1  6  1  0  0  0  0
  1 38  1  0  0  0  0
  2  3  1  0  0  0  0
  2 39  1  0  0  0  0
  3  4  2  0  0  0  0
  4  5  1  0  0  0  0
  4 40  1  0  0  0  0
  5  7  1  0  0  0  0
  5  6  2  0  0  0  0
  6 41  1  0  0  0  0
  7  8  1  0  0  0  0
  7 12  2  0  0  0  0
  8  9  1  0  0  0  0
  9 13  1  0  0  0  0
  9 10  2  0  0  0  0
 10 11  1  0  0  0  0
 11 12  1  0  0  0  0
 11 42  1  0  0  0  0
 11 43  1  0  0  0  0
 12 44  1  0  0  0  0
 13 14  1  0  0  0  0
 13 45  1  0  0  0  0
 14 15  2  0  0  0  0
 14 19  1  0  0  0  0
 15 16  1  0  0  0  0
 15 46  1  0  0  0  0
 16 21  1  0  0  0  0
 16 17  2  0  0  0  0
 17 18  1  0  0  0  0
 17 47  1  0  0  0  0
 18 19  2  0  0  0  0
 18 48  1  0  0  0  0
 19 20  1  0  0  0  0
 20 49  1  0  0  0  0
 20 50  1  0  0  0  0
 20 51  1  0  0  0  0
 21 22  1  0  0  0  0
 21 52  1  0  0  0  0
 22 23  1  0  0  0  0
 22 29  2  0  0  0  0
 23 24  2  0  0  0  0
 23 28  1  0  0  0  0
 24 25  1  0  0  0  0
 24 53  1  0  0  0  0
 25 26  2  0  0  0  0
 25 54  1  0  0  0  0
 26 27  1  0  0  0  0
 26 30  1  0  0  0  0
 27 28  2  0  0  0  0
 27 55  1  0  0  0  0
 28 56  1  0  0  0  0
 30 31  1  0  0  0  0
 30 57  1  0  0  0  0
 30 58  1  0  0  0  0
 31 32  1  0  0  0  0
 31 36  1  0  0  0  0
 31 59  1  0  0  0  0
 32 33  1  0  0  0  0
 32 60  1  0  0  0  0
 32 61  1  0  0  0  0
 33 34  1  0  0  0  0
 33 62  1  0  0  0  0
 33 63  1  0  0  0  0
 34 37  1  0  0  0  0
 34 35  1  0  0  0  0
 34 64  1  0  0  0  0
 35 36  1  0  0  0  0
 35 65  1  0  0  0  0
 35 66  1  0  0  0  0
 36 67  1  0  0  0  0
 36 68  1  0  0  0  0
 37 69  1  0  0  0  0
 37 70  1  0  0  0  0
 37 71  1  0  0  0  0
  8 72  1  0  0  0  0
M  CHG  1  31   1
M  CHG  1  34   1
M  END
